FoamFile
{
    version     2.0;
    format      ascii;
    class       dictionary;
    object      transportProperties;
}

transportModel  Newtonian;

// Non-dimensional units: chord c = 1, U_infty = 1.
// nu = 1 / Re_c = 1 / 6e6 = 1.6667e-7
nu              1.6667e-7;
