FoamFile
{
    version     2.0;
    format      ascii;
    class       dictionary;
    object      fvSolution;
}

solvers
{
    p
    {
        solver          GAMG;
        tolerance       1e-7;
        relTol          0.01;
        smoother        GaussSeidel;
        nPreSweeps      0;
        nPostSweeps     2;
        cacheAgglomeration on;
        agglomerator    faceAreaPair;
        nCellsInCoarsestLevel 100;
        mergeLevels     1;
    }

    U
    {
        solver          smoothSolver;
        smoother        GaussSeidel;
        tolerance       1e-8;
        relTol          0.1;
        nSweeps         2;
    }

    "(k|omega)"
    {
        solver          smoothSolver;
        smoother        GaussSeidel;
        tolerance       1e-8;
        relTol          0.1;
        nSweeps         2;
    }

    // Poisson wall-distance variable (fvSchemes wallDist.method=Poisson).
    yPsi
    {
        solver          PCG;
        preconditioner  DIC;
        tolerance       1e-8;
        relTol          0.0;
    }
}

SIMPLE
{
    nNonOrthogonalCorrectors 0;
    consistent      yes;
    residualControl
    {
        p           1e-6;
        U           1e-6;
        k           1e-6;
        omega       1e-6;
    }
}

relaxationFactors
{
    fields
    {
        p           0.7;
    }
    equations
    {
        U           0.7;
        k           0.7;
        omega       0.7;
    }
}

cache
{
    grad(U);
}
