FoamFile
{
    version     2.0;
    format      ascii;
    class       dictionary;
    object      controlDict;
}

application     simpleFoam;
startFrom       startTime;
startTime       0;
stopAt          endTime;
endTime         5000;
deltaT          1;
writeControl    timeStep;
writeInterval   500;
purgeWrite      2;
writeFormat     ascii;
writePrecision  10;
writeCompression off;
timeFormat      general;
timePrecision   8;
runTimeModifiable yes;

functions
{
    forceCoeffs1
    {
        type            forceCoeffs;
        libs            ("libforces.so");
        writeControl    timeStep;
        writeInterval   1;
        log             yes;
        patches         ( airfoil );
        rho             rhoInf;
        rhoInf          1.0;
        magUInf         1.0;
        lRef            1.0;
        Aref            1.0;
        // liftDir / dragDir / CofR rewritten by scripts/set_aoa.py
        // for each angle-of-attack.
        liftDir         ( {{LIFT_X}} {{LIFT_Y}} 0 );
        dragDir         ( {{DRAG_X}} {{DRAG_Y}} 0 );
        CofR            ( 0.25 0 0 );
        pitchAxis       ( 0 0 1 );
    }

    residuals
    {
        type            residuals;
        libs            ("libutilityFunctionObjects.so");
        writeControl    timeStep;
        writeInterval   1;
        fields          ( U p nuTilda );
    }

    yPlus
    {
        type            yPlus;
        libs            ("libfieldFunctionObjects.so");
        writeControl    writeTime;
        patches         ( airfoil );
    }
}
