FoamFile
{
    version     2.0;
    format      ascii;
    class       dictionary;
    object      fvSchemes;
}

ddtSchemes
{
    default         steadyState;
}

gradSchemes
{
    default         Gauss linear;
    grad(U)         cellLimited Gauss linear 1;
    grad(p)         cellLimited Gauss linear 1;
}

divSchemes
{
    default         none;
    // Stage-4.x tuning: SA's near-wall production was the culprit
    // when degenerate cells were present. First-order `upwind` on
    // nuTilda is strictly bounded; sacrifices accuracy for stability.
    div(phi,U)      bounded Gauss linearUpwindV grad(U);
    div(phi,nuTilda) bounded Gauss upwind;
    div((nuEff*dev2(T(grad(U))))) Gauss linear;
}

laplacianSchemes
{
    default         Gauss linear corrected;
}

interpolationSchemes
{
    default         linear;
}

snGradSchemes
{
    default         corrected;
}

wallDist
{
    method          meshWave;
}
